Examples/InverterModels/PVSystem2/InvControl2/MonitoredVoltage/Mon_voltage_MAX_Mix_avg_sec9_VLN_Node.Txt

LINE-GROUND and LINE-LINE VOLTAGES BY BUS & NODE

Bus  Node    VLN (kV)   Angle      pu     Base kV    Node-Node   VLL (kV)  Angle      pu

A .. 1       8.5117 /_    6.7    1.0683    13.800        1-2     14.745 /_   36.7    1.0685
   - 2       8.5173 /_ -113.3     1.069    13.800        2-3     14.747 /_  -83.3    1.0686
   - 3       8.5135 /_  126.8    1.0685    13.800        3-1     14.749 /_  156.7    1.0688
B .. 1       8.6505 /_    8.9    1.0857    13.800        1-2      14.93 /_   38.7    1.0819
   - 2       8.5821 /_ -111.2    1.0771    13.800        2-3     14.837 /_  -81.1    1.0751
   - 3       8.5711 /_  129.1    1.0758    13.800        3-1     14.926 /_  159.1    1.0816
C .. 1      0.30174 /_    8.9    1.0888     0.480        1-2    0.52079 /_   38.8     1.085
   - 2      0.29936 /_ -111.2    1.0802     0.480        2-3    0.51755 /_  -81.1    1.0782
   - 3      0.29898 /_  129.1    1.0789     0.480        3-1    0.52065 /_  159.2    1.0847
